xflr5 v6.47

 Calculated polar for: DAE-31 AIRFOIL

 1 1 Reynolds number fixed          Mach number fixed         

 xtrf =   1.000 (top)        1.000 (bottom)
 Mach =   0.000     Re =     0.200 e 6     Ncrit =   9.000

  alpha     CL        CD       CDp       Cm    Top Xtr Bot Xtr   Cpmin    Chinge    XCp    
 ------- -------- --------- --------- -------- ------- ------- -------- --------- ---------
 -15.000  -0.2137   0.16643   0.16277  -0.0554  0.9888  0.0242  -1.1511   0.0000  -0.0430
 -14.900  -0.2078   0.16499   0.16132  -0.0569  0.9875  0.0246  -1.1533   0.0000  -0.0582
 -14.800  -0.2018   0.16355   0.15988  -0.0583  0.9862  0.0249  -1.1562   0.0000  -0.0745
 -14.700  -0.1958   0.16213   0.15845  -0.0598  0.9849  0.0253  -1.1599   0.0000  -0.0920
 -14.600  -0.1896   0.16071   0.15698  -0.0614  0.9838  0.0257  -1.1649   0.0000  -0.1110
 -14.500  -0.1846   0.15944   0.15571  -0.0626  0.9824  0.0262  -1.1714   0.0000  -0.1274
 -14.400  -0.1794   0.15824   0.15450  -0.0638  0.9810  0.0266  -1.1801   0.0000  -0.1451
 -14.300  -0.1740   0.15713   0.15340  -0.0652  0.9796  0.0271  -1.1917   0.0000  -0.1651
 -14.200  -0.1686   0.15622   0.15248  -0.0668  0.9783  0.0276  -1.2070   0.0000  -0.1875
 -14.100  -0.1633   0.15552   0.15178  -0.0684  0.9770  0.0281  -1.2248   0.0000  -0.2118
 -14.000  -0.1582   0.15493   0.15118  -0.0702  0.9757  0.0284  -1.2427   0.0000  -0.2374
 -13.900  -0.1533   0.15431   0.15056  -0.0719  0.9746  0.0286  -1.2593   0.0000  -0.2640
 -13.800  -0.1485   0.15361   0.14986  -0.0736  0.9735  0.0288  -1.2745   0.0000  -0.2920
 -13.700  -0.1436   0.15282   0.14906  -0.0753  0.9725  0.0289  -1.2885   0.0000  -0.3218
 -13.600  -0.1387   0.15196   0.14819  -0.0770  0.9716  0.0290  -1.3015   0.0000  -0.3537
 -13.500  -0.1338   0.15102   0.14725  -0.0786  0.9707  0.0291  -1.3137   0.0000  -0.3883
 -13.400  -0.1287   0.15001   0.14623  -0.0803  0.9699  0.0292  -1.3249   0.0000  -0.4264
 -13.300  -0.1231   0.14887   0.14509  -0.0820  0.9691  0.0292  -1.3332   0.0000  -0.4704
 -13.200  -0.1170   0.14761   0.14383  -0.0836  0.9685  0.0293  -1.3381   0.0000  -0.5220
 -13.100  -0.1107   0.14630   0.14251  -0.0853  0.9678  0.0293  -1.3420   0.0000  -0.5808
 -13.000  -0.1043   0.14498   0.14118  -0.0870  0.9672  0.0294  -1.3450   0.0000  -0.6477
 -12.900  -0.0979   0.14369   0.13989  -0.0887  0.9667  0.0294  -1.3475   0.0000  -0.7241
 -12.800  -0.0913   0.14240   0.13859  -0.0904  0.9661  0.0295  -1.3494   0.0000  -0.8124
 -12.700  -0.0847   0.14107   0.13726  -0.0922  0.9656  0.0295  -1.3504   0.0000  -0.9167
 -12.600  -0.0778   0.13968   0.13586  -0.0939  0.9651  0.0295  -1.3503   0.0000  -1.0414
 -12.500  -0.0724   0.13843   0.13460  -0.0952  0.9640  0.0296  -1.3503   0.0000  -1.1554
 -12.400  -0.0680   0.13727   0.13344  -0.0961  0.9624  0.0296  -1.3501   0.0000  -1.2605
 -12.300  -0.0631   0.13604   0.13221  -0.0972  0.9609  0.0296  -1.3490   0.0000  -1.3932
 -12.200  -0.0579   0.13475   0.13091  -0.0983  0.9596  0.0296  -1.3471   0.0000  -1.5596
 -12.100  -0.0525   0.13342   0.12958  -0.0995  0.9583  0.0296  -1.3444   0.0000  -1.7699
 -12.000  -0.0468   0.13207   0.12823  -0.1008  0.9571  0.0296  -1.3413   0.0000  -2.0389
 -11.900  -0.0411   0.13071   0.12686  -0.1020  0.9559  0.0297  -1.3377   0.0000  -2.3919
 -11.800  -0.0351   0.12934   0.12548  -0.1033  0.9548  0.0297  -1.3337   0.0000  -2.8729
 -11.700  -0.0291   0.12796   0.12410  -0.1047  0.9537  0.0297  -1.3293   0.0000  -3.5636
 -11.600  -0.0230   0.12657   0.12271  -0.1060  0.9526  0.0297  -1.3246   0.0000  -4.6346
 -11.500  -0.0168   0.12518   0.12132  -0.1074  0.9515  0.0297  -1.3196   0.0000  -6.5142
 -11.400  -0.0105   0.12379   0.11992  -0.1088  0.9505  0.0297  -1.3142   0.0000  -10.6705
 -11.300  -0.0042   0.12240   0.11852  -0.1102  0.9495  0.0297  -1.3086   0.0000  -27.7312
 -11.100   0.1679   0.03886   0.03582  -0.0896  0.8472  0.0366  -0.3795   0.0000   0.7856
 -11.000   0.1712   0.03822   0.03519  -0.0901  0.8453  0.0370  -0.3713   0.0000   0.7777
 -10.900   0.1744   0.03762   0.03459  -0.0905  0.8435  0.0374  -0.3636   0.0000   0.7703
 -10.800   0.1773   0.03704   0.03401  -0.0908  0.8418  0.0378  -0.3564   0.0000   0.7634
 -10.700   0.1801   0.03647   0.03345  -0.0910  0.8403  0.0382  -0.3505   0.0000   0.7569
 -10.600   0.1828   0.03592   0.03291  -0.0913  0.8388  0.0386  -0.3503   0.0000   0.7506
 -10.500   0.1854   0.03538   0.03237  -0.0914  0.8374  0.0390  -0.3505   0.0000   0.7446
 -10.400   0.1879   0.03485   0.03183  -0.0916  0.8360  0.0395  -0.3511   0.0000   0.7388
 -10.300   0.1903   0.03432   0.03130  -0.0917  0.8347  0.0400  -0.3521   0.0000   0.7332
 -10.200   0.1926   0.03379   0.03078  -0.0918  0.8335  0.0404  -0.3535   0.0000   0.7278
 -10.100   0.1949   0.03327   0.03026  -0.0918  0.8323  0.0410  -0.3554   0.0000   0.7225
 -10.000   0.1970   0.03277   0.02976  -0.0919  0.8312  0.0415  -0.3578   0.0000   0.7175
  -9.900   0.1989   0.03230   0.02928  -0.0918  0.8300  0.0420  -0.3608   0.0000   0.7129
  -9.800   0.2006   0.03184   0.02882  -0.0918  0.8289  0.0426  -0.3645   0.0000   0.7086
  -9.700   0.2021   0.03142   0.02839  -0.0917  0.8279  0.0432  -0.3690   0.0000   0.7046
  -9.600   0.2034   0.03104   0.02801  -0.0916  0.8268  0.0438  -0.3746   0.0000   0.7012
  -9.500   0.2044   0.03072   0.02769  -0.0914  0.8258  0.0444  -0.3815   0.0000   0.6983
  -9.400   0.2048   0.03051   0.02747  -0.0913  0.8247  0.0450  -0.3901   0.0000   0.6965
  -9.300   0.2058   0.03030   0.02727  -0.0916  0.8232  0.0457  -0.4003   0.0000   0.6959
  -9.200   0.2078   0.03001   0.02699  -0.0927  0.8208  0.0464  -0.4125   0.0000   0.6971
  -9.100   0.2083   0.02990   0.02690  -0.0935  0.8181  0.0469  -0.4256   0.0000   0.7000
  -9.000   0.2077   0.02985   0.02687  -0.0940  0.8155  0.0473  -0.4387   0.0000   0.7034
  -8.900   0.2068   0.02979   0.02682  -0.0943  0.8131  0.0475  -0.4515   0.0000   0.7067
  -8.800   0.2065   0.02965   0.02669  -0.0945  0.8110  0.0478  -0.4629   0.0000   0.7083
  -8.700   0.2067   0.02943   0.02647  -0.0946  0.8091  0.0480  -0.4728   0.0000   0.7083
  -8.600   0.2077   0.02912   0.02616  -0.0947  0.8073  0.0481  -0.4805   0.0000   0.7067
  -8.500   0.2091   0.02874   0.02578  -0.0948  0.8058  0.0483  -0.4871   0.0000   0.7042
  -8.400   0.2106   0.02832   0.02536  -0.0949  0.8045  0.0484  -0.4939   0.0000   0.7013
  -8.300   0.2122   0.02786   0.02490  -0.0950  0.8032  0.0485  -0.5009   0.0000   0.6984
  -8.200   0.2139   0.02738   0.02441  -0.0951  0.8021  0.0485  -0.5080   0.0000   0.6953
  -8.100   0.2155   0.02687   0.02391  -0.0952  0.8011  0.0486  -0.5154   0.0000   0.6922
  -8.000   0.2172   0.02635   0.02339  -0.0953  0.8002  0.0487  -0.5230   0.0000   0.6892
  -7.900   0.2187   0.02586   0.02289  -0.0953  0.7992  0.0487  -0.5309   0.0000   0.6865
  -7.800   0.2200   0.02536   0.02238  -0.0954  0.7983  0.0488  -0.5391   0.0000   0.6839
  -7.700   0.2214   0.02486   0.02188  -0.0954  0.7974  0.0488  -0.5474   0.0000   0.6814
  -7.600   0.2226   0.02436   0.02138  -0.0954  0.7966  0.0488  -0.5560   0.0000   0.6790
  -7.500   0.2237   0.02387   0.02089  -0.0954  0.7958  0.0489  -0.5648   0.0000   0.6768
  -7.400   0.2247   0.02341   0.02042  -0.0954  0.7950  0.0489  -0.5738   0.0000   0.6748
  -7.300   0.2253   0.02297   0.01998  -0.0953  0.7942  0.0489  -0.5830   0.0000   0.6730
  -7.000   0.1497   0.07700   0.07316  -0.1289  0.8775  0.0466  -1.1742   0.0000   1.1406
  -6.900   0.1465   0.07702   0.07321  -0.1284  0.8746  0.0470  -1.1915   0.0000   1.1561
  -6.800   0.1431   0.07705   0.07326  -0.1279  0.8716  0.0473  -1.2077   0.0000   1.1731
  -6.700   0.1402   0.07706   0.07328  -0.1274  0.8689  0.0476  -1.2222   0.0000   1.1883
  -6.600   0.1402   0.07688   0.07310  -0.1274  0.8666  0.0479  -1.2324   0.0000   1.1879
  -6.500   0.1420   0.07647   0.07269  -0.1279  0.8644  0.0481  -1.2424   0.0000   1.1782
  -6.400   0.1445   0.07591   0.07214  -0.1284  0.8624  0.0483  -1.2528   0.0000   1.1657
  -6.300   0.1475   0.07525   0.07147  -0.1291  0.8605  0.0484  -1.2637   0.0000   1.1509
  -6.200   0.1512   0.07451   0.07071  -0.1299  0.8588  0.0485  -1.2751   0.0000   1.1340
  -6.100   0.1551   0.07373   0.06993  -0.1307  0.8571  0.0486  -1.2869   0.0000   1.1169
  -6.000   0.1585   0.07305   0.06923  -0.1314  0.8552  0.0487  -1.2989   0.0000   1.1020
  -5.900   0.1598   0.07247   0.06865  -0.1318  0.8532  0.0487  -1.3113   0.0000   1.0966
  -5.800   0.1602   0.07187   0.06807  -0.1319  0.8508  0.0488  -1.3240   0.0000   1.0952
  -5.700   0.1606   0.07128   0.06749  -0.1320  0.8482  0.0488  -1.3368   0.0000   1.0935
  -5.600   0.1616   0.07061   0.06683  -0.1322  0.8454  0.0488  -1.3497   0.0000   1.0888
  -5.500   0.1639   0.06981   0.06603  -0.1326  0.8427  0.0489  -1.3628   0.0000   1.0793
  -5.400   0.1676   0.06888   0.06509  -0.1333  0.8404  0.0489  -1.3759   0.0000   1.0649
  -5.300   0.1724   0.06782   0.06401  -0.1342  0.8382  0.0490  -1.3888   0.0000   1.0467
  -5.200   0.1782   0.06667   0.06283  -0.1352  0.8363  0.0490  -1.4012   0.0000   1.0263
  -5.100   0.1844   0.06547   0.06162  -0.1363  0.8345  0.0490  -1.4130   0.0000   1.0057
  -5.000   0.1721   0.05970   0.05587  -0.1378  0.8324  0.0509  -1.5520   0.0000   1.0679
  -4.800   0.1809   0.05744   0.05362  -0.1370  0.8299  0.0525  -1.4934   0.0000   1.0234
  -4.700   0.1863   0.05684   0.05302  -0.1361  0.8289  0.0534  -1.4414   0.0000   0.9961
  -4.600   0.1923   0.05633   0.05252  -0.1354  0.8279  0.0545  -1.3891   0.0000   0.9686
  -4.500   0.1989   0.05577   0.05196  -0.1350  0.8269  0.0558  -1.3447   0.0000   0.9425
  -4.400   0.2061   0.05513   0.05131  -0.1351  0.8257  0.0572  -1.3112   0.0000   0.9187
  -4.300   0.2134   0.05449   0.05064  -0.1356  0.8244  0.0586  -1.2875   0.0000   0.8977
  -4.200   0.2143   0.05405   0.05021  -0.1353  0.8215  0.0594  -1.2804   0.0000   0.8930
  -4.100   0.2128   0.05373   0.04991  -0.1345  0.8172  0.0601  -1.2787   0.0000   0.8937
  -4.000   0.2151   0.05315   0.04933  -0.1344  0.8138  0.0609  -1.2735   0.0000   0.8861
  -3.900   0.2209   0.05232   0.04848  -0.1350  0.8111  0.0620  -1.2668   0.0000   0.8717
  -3.800   0.2291   0.05134   0.04748  -0.1360  0.8090  0.0633  -1.2594   0.0000   0.8539
  -3.700   0.2390   0.05027   0.04636  -0.1374  0.8072  0.0648  -1.2527   0.0000   0.8344
  -3.600   0.2509   0.04912   0.04515  -0.1392  0.8057  0.0667  -1.2475   0.0000   0.8133
  -3.500   0.2668   0.04801   0.04394  -0.1416  0.8044  0.0696  -1.2491   0.0000   0.7888
  -3.400   0.2905   0.04874   0.04444  -0.1441  0.8032  0.0735  -1.2359   0.0000   0.7531
  -3.329   0.3000   0.04834   0.04397  -0.1449  0.8023  0.0738  -1.2236   0.0000   0.7397
  -3.300   0.3038   0.04811   0.04371  -0.1452  0.8020  0.0739  -1.2187   0.0000   0.7345
  -3.200   0.3163   0.04719   0.04270  -0.1462  0.8009  0.0741  -1.2022   0.0000   0.7184
  -3.100   0.3287   0.04617   0.04159  -0.1471  0.7998  0.0742  -1.1849   0.0000   0.7034
  -3.000   0.3337   0.04017   0.03546  -0.1507  0.7987  0.0777  -1.2656   0.0000   0.7071
  -2.900   0.3441   0.03903   0.03433  -0.1511  0.7978  0.0789  -1.2239   0.0000   0.6943
  -2.800   0.3550   0.03819   0.03348  -0.1514  0.7970  0.0801  -1.1778   0.0000   0.6813
  -2.700   0.3662   0.03743   0.03271  -0.1517  0.7961  0.0813  -1.1334   0.0000   0.6688
  -2.600   0.3777   0.03673   0.03197  -0.1521  0.7952  0.0827  -1.0918   0.0000   0.6569
  -2.500   0.3893   0.03608   0.03128  -0.1525  0.7942  0.0843  -1.0537   0.0000   0.6456
  -2.400   0.3972   0.03566   0.03082  -0.1524  0.7923  0.0859  -1.0254   0.0000   0.6373
  -2.300   0.3916   0.03588   0.03107  -0.1504  0.7864  0.0863  -1.0217   0.0000   0.6377
  -2.200   0.3964   0.03554   0.03070  -0.1498  0.7829  0.0878  -1.0011   0.0000   0.6313
  -2.100   0.4057   0.03497   0.03007  -0.1499  0.7806  0.0898  -0.9753   0.0000   0.6225
  -2.000   0.4173   0.03429   0.02930  -0.1503  0.7788  0.0921  -0.9524   0.0000   0.6128
  -1.900   0.4303   0.03356   0.02846  -0.1507  0.7773  0.0942  -0.9445   0.0000   0.6028
  -1.800   0.4440   0.03261   0.02740  -0.1513  0.7760  0.0945  -0.9422   0.0000   0.5932
  -1.500   0.4959   0.02661   0.02018  -0.1528  0.7730  0.0475  -1.2856   0.0000   0.5599
  -1.469   0.5000   0.02636   0.01989  -0.1529  0.7726  0.0475  -1.2853   0.0000   0.5575
  -1.400   0.5092   0.02587   0.01931  -0.1530  0.7719  0.0476  -1.2819   0.0000   0.5521
  -1.300   0.5225   0.02529   0.01861  -0.1532  0.7710  0.0479  -1.2707   0.0000   0.5446
  -1.200   0.5358   0.02485   0.01808  -0.1534  0.7701  0.0484  -1.2509   0.0000   0.5374
  -1.100   0.5492   0.02461   0.01776  -0.1535  0.7692  0.0489  -1.2190   0.0000   0.5305
  -1.000   0.5629   0.02360   0.01660  -0.1538  0.7684  0.0497  -1.2249   0.0000   0.5241
  -0.900   0.5764   0.02269   0.01555  -0.1541  0.7676  0.0508  -1.2225   0.0000   0.5179
  -0.800   0.5897   0.02190   0.01467  -0.1543  0.7669  0.0539  -1.2026   0.0000   0.5122
  -0.721   0.6000   0.02164   0.01441  -0.1545  0.7662  0.0567  -1.1621   0.0000   0.5078
  -0.700   0.6028   0.02158   0.01436  -0.1545  0.7660  0.0575  -1.1505   0.0000   0.5067
  -0.600   0.6160   0.02134   0.01411  -0.1547  0.7651  0.0602  -1.1025   0.0000   0.5013
  -0.500   0.6292   0.02106   0.01377  -0.1548  0.7642  0.0619  -1.0685   0.0000   0.4960
  -0.400   0.6367   0.02100   0.01370  -0.1542  0.7618  0.0627  -1.0446   0.0000   0.4920
  -0.300   0.6350   0.02133   0.01406  -0.1524  0.7560  0.0632  -1.0340   0.0000   0.4897
  -0.200   0.6423   0.02126   0.01397  -0.1518  0.7530  0.0645  -1.0091   0.0000   0.4858
  -0.100   0.6523   0.02107   0.01377  -0.1515  0.7508  0.0664  -0.9798   0.0000   0.4816
   0.000   0.6632   0.02086   0.01353  -0.1513  0.7489  0.0692  -0.9490   0.0000   0.4773
   0.100   0.6749   0.02063   0.01328  -0.1511  0.7472  0.0726  -0.9156   0.0000   0.4730
   0.200   0.6873   0.02016   0.01279  -0.1511  0.7458  0.0823  -0.9002   0.0000   0.4688
   0.298   0.7000   0.01983   0.01249  -0.1512  0.7445  0.1003  -0.9102   0.0000   0.4648
   0.300   0.7003   0.01982   0.01248  -0.1513  0.7445  0.1007  -0.9104   0.0000   0.4647
   0.400   0.7135   0.01923   0.01219  -0.1515  0.7433  0.1805  -0.9207   0.0000   0.4610
   0.500   0.7259   0.01867   0.01211  -0.1518  0.7422  0.3325  -0.9310   0.0000   0.4576
   0.600   0.7378   0.01818   0.01203  -0.1519  0.7412  0.4734  -0.9411   0.0000   0.4542
   0.700   0.7476   0.01765   0.01192  -0.1514  0.7401  0.6201  -0.9502   0.0000   0.4506
   0.800   0.7665   0.01687   0.01167  -0.1523  0.7395  1.0000  -0.9651   0.0000   0.4466
   0.900   0.7799   0.01676   0.01148  -0.1524  0.7385  1.0000  -0.9769   0.0000   0.4433
   1.000   0.7935   0.01664   0.01128  -0.1526  0.7375  1.0000  -0.9889   0.0000   0.4400
   1.047   0.8000   0.01658   0.01119  -0.1527  0.7371  1.0000  -0.9946   0.0000   0.4385
   1.100   0.8074   0.01652   0.01108  -0.1529  0.7366  1.0000  -1.0011   0.0000   0.4369
   1.200   0.8213   0.01641   0.01091  -0.1531  0.7355  1.0000  -1.0133   0.0000   0.4338
   1.300   0.8350   0.01635   0.01077  -0.1534  0.7344  1.0000  -1.0254   0.0000   0.4309
   1.400   0.8379   0.01666   0.01110  -0.1522  0.7302  1.0000  -1.0295   0.0000   0.4287
   1.500   0.8421   0.01690   0.01134  -0.1511  0.7258  1.0000  -1.0354   0.0000   0.4265
   1.600   0.8508   0.01696   0.01137  -0.1507  0.7228  1.0000  -1.0447   0.0000   0.4240
   1.700   0.8614   0.01694   0.01131  -0.1505  0.7205  1.0000  -1.0555   0.0000   0.4214
   1.800   0.8730   0.01688   0.01121  -0.1504  0.7185  1.0000  -1.0671   0.0000   0.4189
   1.900   0.8853   0.01678   0.01107  -0.1505  0.7168  1.0000  -1.0793   0.0000   0.4164
   2.000   0.8980   0.01665   0.01090  -0.1505  0.7152  1.0000  -1.0918   0.0000   0.4139
   2.016   0.9000   0.01663   0.01087  -0.1505  0.7149  1.0000  -1.0938   0.0000   0.4135
   2.100   0.9111   0.01650   0.01070  -0.1507  0.7137  1.0000  -1.1047   0.0000   0.4115
   2.200   0.9247   0.01634   0.01050  -0.1509  0.7123  1.0000  -1.1180   0.0000   0.4092
   2.300   0.9386   0.01617   0.01029  -0.1511  0.7110  1.0000  -1.1321   0.0000   0.4069
   2.400   0.9527   0.01599   0.01007  -0.1514  0.7097  1.0000  -1.1470   0.0000   0.4046
   2.500   0.9669   0.01583   0.00986  -0.1517  0.7084  1.0000  -1.1620   0.0000   0.4025
   2.600   0.9810   0.01569   0.00967  -0.1520  0.7070  1.0000  -1.1770   0.0000   0.4004
   2.700   0.9949   0.01560   0.00953  -0.1523  0.7055  1.0000  -1.1918   0.0000   0.3984
   2.799   1.0000   0.01580   0.00975  -0.1514  0.7019  1.0000  -1.2002   0.0000   0.3966
   2.800   1.0001   0.01580   0.00975  -0.1514  0.7018  1.0000  -1.2003   0.0000   0.3965
   2.900   1.0053   0.01597   0.00994  -0.1504  0.6976  1.0000  -1.2092   0.0000   0.3947
   3.000   1.0138   0.01601   0.00998  -0.1499  0.6943  1.0000  -1.2210   0.0000   0.3928
   3.100   1.0243   0.01596   0.00992  -0.1497  0.6915  1.0000  -1.2345   0.0000   0.3909
   3.200   1.0361   0.01586   0.00980  -0.1497  0.6890  1.0000  -1.2491   0.0000   0.3891
   3.300   1.0487   0.01574   0.00965  -0.1497  0.6868  1.0000  -1.2644   0.0000   0.3873
   3.400   1.0619   0.01559   0.00947  -0.1499  0.6848  1.0000  -1.2814   0.0000   0.3855
   3.500   1.0755   0.01543   0.00927  -0.1501  0.6828  1.0000  -1.2993   0.0000   0.3838
   3.600   1.0892   0.01527   0.00908  -0.1504  0.6809  1.0000  -1.3175   0.0000   0.3821
   3.679   1.1000   0.01517   0.00896  -0.1506  0.6794  1.0000  -1.3318   0.0000   0.3808
   3.700   1.1030   0.01514   0.00892  -0.1506  0.6790  1.0000  -1.3357   0.0000   0.3805
   3.800   1.1171   0.01503   0.00877  -0.1510  0.6770  1.0000  -1.3542   0.0000   0.3789
   3.900   1.1255   0.01512   0.00887  -0.1505  0.6738  1.0000  -1.3675   0.0000   0.3774
   4.000   1.1311   0.01527   0.00905  -0.1496  0.6697  1.0000  -1.3783   0.0000   0.3758
   4.100   1.1393   0.01532   0.00911  -0.1490  0.6659  1.0000  -1.3918   0.0000   0.3742
   4.200   1.1495   0.01529   0.00908  -0.1488  0.6624  1.0000  -1.4087   0.0000   0.3727
   4.300   1.1608   0.01521   0.00898  -0.1487  0.6592  1.0000  -1.4270   0.0000   0.3712
   4.400   1.1730   0.01510   0.00885  -0.1487  0.6563  1.0000  -1.4461   0.0000   0.3697
   4.500   1.1858   0.01498   0.00870  -0.1488  0.6535  1.0000  -1.4658   0.0000   0.3683
   4.600   1.1994   0.01486   0.00852  -0.1491  0.6508  1.0000  -1.4865   0.0000   0.3669
   4.605   1.2000   0.01485   0.00852  -0.1491  0.6507  1.0000  -1.4874   0.0000   0.3669
   4.700   1.2138   0.01476   0.00837  -0.1495  0.6481  1.0000  -1.5079   0.0000   0.3656
   4.800   1.2216   0.01485   0.00848  -0.1489  0.6442  1.0000  -1.5228   0.0000   0.3642
   4.900   1.2278   0.01496   0.00862  -0.1480  0.6396  1.0000  -1.5367   0.0000   0.3628
   5.000   1.2361   0.01500   0.00868  -0.1475  0.6353  1.0000  -1.5543   0.0000   0.3614
   5.100   1.2459   0.01498   0.00866  -0.1471  0.6312  1.0000  -1.5737   0.0000   0.3600
   5.200   1.2568   0.01494   0.00862  -0.1470  0.6274  1.0000  -1.5944   0.0000   0.3587
   5.300   1.2693   0.01486   0.00850  -0.1471  0.6238  1.0000  -1.6170   0.0000   0.3575
   5.400   1.2830   0.01478   0.00837  -0.1474  0.6204  1.0000  -1.6408   0.0000   0.3563
   5.500   1.2938   0.01482   0.00838  -0.1473  0.6164  1.0000  -1.6615   0.0000   0.3551
   5.600   1.2992   0.01495   0.00856  -0.1463  0.6114  1.0000  -1.6762   0.0000   0.3538
   5.615   1.3000   0.01497   0.00858  -0.1461  0.6107  1.0000  -1.6785   0.0000   0.3536
   5.700   1.3064   0.01503   0.00866  -0.1456  0.6065  1.0000  -1.6952   0.0000   0.3524
   5.800   1.3151   0.01507   0.00869  -0.1451  0.6018  1.0000  -1.7166   0.0000   0.3512
   5.900   1.3259   0.01506   0.00865  -0.1449  0.5974  1.0000  -1.7406   0.0000   0.3500
   6.000   1.3380   0.01504   0.00858  -0.1450  0.5933  1.0000  -1.7663   0.0000   0.3489
   6.100   1.3516   0.01504   0.00850  -0.1453  0.5890  1.0000  -1.7940   0.0000   0.3479
   6.200   1.3565   0.01518   0.00870  -0.1442  0.5840  1.0000  -1.8108   0.0000   0.3466
   6.300   1.3624   0.01530   0.00885  -0.1433  0.5786  1.0000  -1.8291   0.0000   0.3453
   6.400   1.3701   0.01537   0.00893  -0.1427  0.5732  1.0000  -1.8498   0.0000   0.3441
   6.500   1.3798   0.01541   0.00893  -0.1424  0.5680  1.0000  -1.8729   0.0000   0.3430
   6.600   1.3910   0.01545   0.00890  -0.1423  0.5631  1.0000  -1.8981   0.0000   0.3419
   6.671   1.4000   0.01550   0.00889  -0.1424  0.5597  1.0000  -1.9173   0.0000   0.3413
   6.700   1.4018   0.01553   0.00898  -0.1422  0.5583  1.0000  -1.9227   0.0000   0.3409
   6.800   1.4064   0.01568   0.00919  -0.1411  0.5532  1.0000  -1.9394   0.0000   0.3396
   6.900   1.4122   0.01582   0.00934  -0.1402  0.5476  1.0000  -1.9579   0.0000   0.3384
   7.000   1.4197   0.01592   0.00943  -0.1395  0.5420  1.0000  -1.9801   0.0000   0.3373
   7.100   1.4287   0.01600   0.00946  -0.1391  0.5364  1.0000  -2.0066   0.0000   0.3362
   7.200   1.4396   0.01610   0.00947  -0.1390  0.5308  1.0000  -2.0358   0.0000   0.3352
   7.300   1.4443   0.01625   0.00967  -0.1379  0.5254  1.0000  -2.0560   0.0000   0.3340
   7.400   1.4486   0.01641   0.00985  -0.1367  0.5196  1.0000  -2.0758   0.0000   0.3328
   7.500   1.4544   0.01655   0.00999  -0.1358  0.5136  1.0000  -2.0979   0.0000   0.3316
   7.600   1.4616   0.01668   0.01008  -0.1351  0.5079  1.0000  -2.1222   0.0000   0.3305
   7.700   1.4706   0.01683   0.01015  -0.1347  0.5023  1.0000  -2.1490   0.0000   0.3295
   7.800   1.4760   0.01700   0.01033  -0.1337  0.4970  1.0000  -2.1705   0.0000   0.3283
   7.900   1.4786   0.01717   0.01054  -0.1323  0.4914  1.0000  -2.1882   0.0000   0.3271
   8.000   1.4816   0.01734   0.01071  -0.1309  0.4855  1.0000  -2.2065   0.0000   0.3258
   8.100   1.4857   0.01751   0.01084  -0.1296  0.4796  1.0000  -2.2266   0.0000   0.3245
   8.200   1.4918   0.01769   0.01095  -0.1288  0.4736  1.0000  -2.2497   0.0000   0.3234
   8.300   1.4960   0.01789   0.01114  -0.1276  0.4681  1.0000  -2.2726   0.0000   0.3222
   8.400   1.4967   0.01810   0.01139  -0.1259  0.4627  1.0000  -2.2907   0.0000   0.3209
   8.500   1.4985   0.01833   0.01162  -0.1244  0.4568  1.0000  -2.3109   0.0000   0.3196
   8.573   1.5000   0.01852   0.01180  -0.1233  0.4525  1.0000  -2.3260   0.0000   0.3187
   8.600   1.5016   0.01855   0.01182  -0.1231  0.4509  1.0000  -2.3333   0.0000   0.3184
   8.700   1.5061   0.01879   0.01200  -0.1220  0.4452  1.0000  -2.3582   0.0000   0.3173
   8.800   1.5114   0.01903   0.01219  -0.1211  0.4396  1.0000  -2.3853   0.0000   0.3163
   8.900   1.5128   0.01928   0.01256  -0.1196  0.4346  1.0000  -2.4085   0.0000   0.3151
   9.000   1.5150   0.01955   0.01285  -0.1183  0.4290  1.0000  -2.4336   0.0000   0.3139
   9.100   1.5175   0.01983   0.01312  -0.1171  0.4233  1.0000  -2.4597   0.0000   0.3128
   9.200   1.5209   0.02011   0.01337  -0.1159  0.4176  1.0000  -2.4874   0.0000   0.3117
   9.300   1.5253   0.02042   0.01359  -0.1150  0.4117  1.0000  -2.5176   0.0000   0.3107
   9.400   1.5276   0.02071   0.01393  -0.1138  0.4066  1.0000  -2.5431   0.0000   0.3096
   9.500   1.5295   0.02102   0.01428  -0.1125  0.4008  1.0000  -2.5678   0.0000   0.3085
   9.600   1.5313   0.02137   0.01461  -0.1113  0.3947  1.0000  -2.5926   0.0000   0.3074
   9.700   1.5335   0.02172   0.01493  -0.1101  0.3887  1.0000  -2.6183   0.0000   0.3064
   9.800   1.5364   0.02210   0.01522  -0.1090  0.3825  1.0000  -2.6456   0.0000   0.3053
   9.900   1.5388   0.02245   0.01561  -0.1079  0.3770  1.0000  -2.6716   0.0000   0.3043
  10.000   1.5406   0.02282   0.01601  -0.1067  0.3711  1.0000  -2.6964   0.0000   0.3033
  10.100   1.5422   0.02322   0.01640  -0.1055  0.3650  1.0000  -2.7250   0.0000   0.3023
  10.200   1.5439   0.02364   0.01678  -0.1044  0.3590  1.0000  -2.7626   0.0000   0.3013
  10.300   1.5460   0.02408   0.01715  -0.1033  0.3530  1.0000  -2.8018   0.0000   0.3003
  10.400   1.5489   0.02447   0.01757  -0.1023  0.3478  1.0000  -2.8427   0.0000   0.2994
  10.500   1.5514   0.02487   0.01800  -0.1014  0.3422  1.0000  -2.8829   0.0000   0.2985
  10.600   1.5534   0.02531   0.01845  -0.1003  0.3365  1.0000  -2.9216   0.0000   0.2976
  10.700   1.5551   0.02578   0.01889  -0.0993  0.3309  1.0000  -2.9597   0.0000   0.2966
  10.800   1.5567   0.02629   0.01933  -0.0982  0.3253  1.0000  -2.9979   0.0000   0.2957
  10.900   1.5593   0.02675   0.01979  -0.0973  0.3201  1.0000  -3.0388   0.0000   0.2948
  11.000   1.5619   0.02718   0.02027  -0.0965  0.3148  1.0000  -3.0800   0.0000   0.2940
  11.100   1.5639   0.02766   0.02076  -0.0955  0.3091  1.0000  -3.1196   0.0000   0.2931
  11.200   1.5653   0.02819   0.02127  -0.0945  0.3033  1.0000  -3.1573   0.0000   0.2922
  11.300   1.5658   0.02878   0.02181  -0.0935  0.2977  1.0000  -3.1927   0.0000   0.2913
  11.400   1.5672   0.02936   0.02234  -0.0925  0.2921  1.0000  -3.2308   0.0000   0.2905
  11.500   1.5697   0.02984   0.02288  -0.0917  0.2872  1.0000  -3.2722   0.0000   0.2897
  11.600   1.5717   0.03037   0.02344  -0.0909  0.2816  1.0000  -3.3122   0.0000   0.2889
  11.700   1.5730   0.03095   0.02400  -0.0900  0.2761  1.0000  -3.3506   0.0000   0.2881
  11.800   1.5738   0.03158   0.02459  -0.0890  0.2708  1.0000  -3.3872   0.0000   0.2873
  11.900   1.5744   0.03226   0.02520  -0.0881  0.2654  1.0000  -3.4229   0.0000   0.2865
  12.000   1.5770   0.03280   0.02585  -0.0874  0.2610  1.0000  -3.4653   0.0000   0.2857
  12.100   1.5794   0.03335   0.02645  -0.0867  0.2563  1.0000  -3.5074   0.0000   0.2850
  12.200   1.5811   0.03394   0.02707  -0.0859  0.2514  1.0000  -3.5475   0.0000   0.2842
  12.300   1.5821   0.03460   0.02771  -0.0851  0.2465  1.0000  -3.5866   0.0000   0.2835
  12.400   1.5825   0.03533   0.02839  -0.0843  0.2416  1.0000  -3.6288   0.0000   0.2827
  12.500   1.5830   0.03608   0.02907  -0.0834  0.2362  1.0000  -3.6717   0.0000   0.2820
  12.600   1.5858   0.03665   0.02971  -0.0828  0.2323  1.0000  -3.7233   0.0000   0.2813
  12.700   1.5878   0.03728   0.03039  -0.0822  0.2279  1.0000  -3.7726   0.0000   0.2807
  12.800   1.5891   0.03797   0.03110  -0.0815  0.2233  1.0000  -3.8191   0.0000   0.2800
  12.900   1.5899   0.03873   0.03184  -0.0808  0.2187  1.0000  -3.8636   0.0000   0.2793
  13.000   1.5900   0.03954   0.03262  -0.0801  0.2144  1.0000  -3.9057   0.0000   0.2786
  13.100   1.5900   0.04040   0.03342  -0.0794  0.2096  1.0000  -3.9470   0.0000   0.2780
  13.200   1.5924   0.04107   0.03411  -0.0788  0.2056  1.0000  -3.9985   0.0000   0.2773
  13.300   1.5952   0.04171   0.03482  -0.0783  0.2021  1.0000  -4.0515   0.0000   0.2767
  13.400   1.5971   0.04243   0.03559  -0.0778  0.1982  1.0000  -4.1010   0.0000   0.2761
  13.500   1.5981   0.04323   0.03640  -0.0772  0.1943  1.0000  -4.1471   0.0000   0.2755
  13.600   1.5984   0.04409   0.03725  -0.0766  0.1904  1.0000  -4.1907   0.0000   0.2750
  13.700   1.5981   0.04502   0.03815  -0.0760  0.1865  1.0000  -4.2316   0.0000   0.2744
  13.800   1.5979   0.04598   0.03905  -0.0754  0.1820  1.0000  -4.2726   0.0000   0.2738
  13.900   1.6002   0.04673   0.03983  -0.0750  0.1784  1.0000  -4.3241   0.0000   0.2732
  14.000   1.6025   0.04747   0.04064  -0.0746  0.1754  1.0000  -4.3765   0.0000   0.2727
  14.100   1.6041   0.04828   0.04151  -0.0742  0.1720  1.0000  -4.4259   0.0000   0.2722
  14.200   1.6049   0.04918   0.04243  -0.0738  0.1685  1.0000  -4.4720   0.0000   0.2717
  14.300   1.6052   0.05014   0.04339  -0.0733  0.1650  1.0000  -4.5161   0.0000   0.2712
  14.400   1.6050   0.05117   0.04441  -0.0729  0.1615  1.0000  -4.5577   0.0000   0.2707
  14.500   1.6042   0.05226   0.04546  -0.0725  0.1579  1.0000  -4.5969   0.0000   0.2702
  14.600   1.6048   0.05326   0.04639  -0.0720  0.1532  1.0000  -4.6409   0.0000   0.2697
  14.700   1.6069   0.05409   0.04731  -0.0717  0.1513  1.0000  -4.6930   0.0000   0.2693
  14.800   1.6085   0.05498   0.04828  -0.0715  0.1488  1.0000  -4.7426   0.0000   0.2688
  14.900   1.6097   0.05592   0.04928  -0.0712  0.1459  1.0000  -4.7910   0.0000   0.2684
  15.000   1.6106   0.05692   0.05032  -0.0709  0.1429  1.0000  -4.8379   0.0000   0.2680
  15.100   1.6109   0.05798   0.05139  -0.0707  0.1399  1.0000  -4.8823   0.0000   0.2676
  15.200   1.6105   0.05912   0.05252  -0.0704  0.1368  1.0000  -4.9236   0.0000   0.2672
  15.300   1.6093   0.06036   0.05374  -0.0702  0.1338  1.0000  -4.9611   0.0000   0.2668
  15.400   1.6077   0.06166   0.05500  -0.0699  0.1302  1.0000  -4.9954   0.0000   0.2665
  15.500   1.6082   0.06273   0.05607  -0.0696  0.1269  1.0000  -5.0396   0.0000   0.2661
  15.600   1.6093   0.06378   0.05721  -0.0695  0.1250  1.0000  -5.0875   0.0000   0.2657
  15.700   1.6104   0.06483   0.05834  -0.0694  0.1227  1.0000  -5.1355   0.0000   0.2654
  15.800   1.6112   0.06592   0.05949  -0.0693  0.1200  1.0000  -5.1825   0.0000   0.2651
  15.900   1.6114   0.06709   0.06069  -0.0693  0.1171  1.0000  -5.2265   0.0000   0.2648
  16.000   1.6104   0.06842   0.06203  -0.0692  0.1144  1.0000  -5.2649   0.0000   0.2646
  16.100   1.6084   0.06989   0.06350  -0.0692  0.1117  1.0000  -5.2980   0.0000   0.2644
  16.200   1.6058   0.07146   0.06505  -0.0692  0.1089  1.0000  -5.3279   0.0000   0.2642
  16.300   1.6033   0.07302   0.06657  -0.0692  0.1055  1.0000  -5.3566   0.0000   0.2640
  16.400   1.6032   0.07427   0.06783  -0.0691  0.1024  1.0000  -5.3977   0.0000   0.2637
  16.500   1.6040   0.07546   0.06920  -0.0692  0.1006  1.0000  -5.4445   0.0000   0.2635
  16.600   1.6040   0.07678   0.07059  -0.0693  0.0984  1.0000  -5.4869   0.0000   0.2634
  16.700   1.6038   0.07814   0.07201  -0.0695  0.0960  1.0000  -5.5281   0.0000   0.2632
  16.800   1.6030   0.07957   0.07348  -0.0696  0.0934  1.0000  -5.5666   0.0000   0.2631
  16.900   1.6015   0.08111   0.07503  -0.0698  0.0909  1.0000  -5.6013   0.0000   0.2630
  17.000   1.5991   0.08277   0.07669  -0.0700  0.0885  1.0000  -5.6311   0.0000   0.2630
  17.100   1.5954   0.08464   0.07856  -0.0703  0.0862  1.0000  -5.6528   0.0000   0.2630
  17.200   1.5915   0.08656   0.08046  -0.0706  0.0836  1.0000  -5.6721   0.0000   0.2630
  17.300   1.5889   0.08824   0.08211  -0.0707  0.0803  1.0000  -5.6953   0.0000   0.2629
  17.400   1.5894   0.08958   0.08354  -0.0710  0.0791  1.0000  -5.7392   0.0000   0.2628
  17.500   1.5896   0.09096   0.08499  -0.0713  0.0774  1.0000  -5.7808   0.0000   0.2628
  17.600   1.5889   0.09246   0.08657  -0.0716  0.0756  1.0000  -5.8174   0.0000   0.2627
  17.700   1.5877   0.09408   0.08825  -0.0720  0.0737  1.0000  -5.8505   0.0000   0.2628
  17.800   1.5862   0.09575   0.08996  -0.0724  0.0717  1.0000  -5.8817   0.0000   0.2628
  17.900   1.5841   0.09750   0.09173  -0.0729  0.0697  1.0000  -5.9098   0.0000   0.2629
  18.000   1.5814   0.09936   0.09361  -0.0734  0.0679  1.0000  -5.9337   0.0000   0.2630
  18.100   1.5774   0.10143   0.09568  -0.0739  0.0661  1.0000  -5.9499   0.0000   0.2633
  18.200   1.5729   0.10362   0.09788  -0.0746  0.0643  1.0000  -5.9613   0.0000   0.2636
  18.300   1.5685   0.10574   0.09998  -0.0751  0.0619  1.0000  -5.9707   0.0000   0.2638
  18.400   1.5662   0.10748   0.10172  -0.0754  0.0595  1.0000  -5.9887   0.0000   0.2638
  18.500   1.5658   0.10906   0.10338  -0.0760  0.0586  1.0000  -6.0232   0.0000   0.2639
  18.600   1.5649   0.11071   0.10510  -0.0765  0.0575  1.0000  -6.0543   0.0000   0.2640
  18.700   1.5633   0.11251   0.10697  -0.0771  0.0563  1.0000  -6.0797   0.0000   0.2642
  18.800   1.5615   0.11432   0.10885  -0.0778  0.0550  1.0000  -6.1040   0.0000   0.2644
  18.900   1.5597   0.11613   0.11071  -0.0784  0.0536  1.0000  -6.1281   0.0000   0.2646
  19.000   1.5578   0.11796   0.11259  -0.0791  0.0522  1.0000  -6.1513   0.0000   0.2648
  19.100   1.5555   0.11987   0.11454  -0.0798  0.0509  1.0000  -6.1713   0.0000   0.2651
  19.200   1.5522   0.12197   0.11667  -0.0807  0.0497  1.0000  -6.1850   0.0000   0.2655
  19.300   1.5485   0.12413   0.11885  -0.0816  0.0485  1.0000  -6.1959   0.0000   0.2660
  19.400   1.5448   0.12628   0.12101  -0.0824  0.0473  1.0000  -6.2055   0.0000   0.2664
  19.500   1.5411   0.12841   0.12313  -0.0833  0.0459  1.0000  -6.2128   0.0000   0.2668
  19.600   1.5376   0.13042   0.12514  -0.0840  0.0442  1.0000  -6.2166   0.0000   0.2672
  19.700   1.5356   0.13193   0.12664  -0.0842  0.0416  1.0000  -6.2156   0.0000   0.2671
  19.800   1.5341   0.13375   0.12853  -0.0851  0.0413  1.0000  -6.2369   0.0000   0.2675
  19.900   1.5320   0.13570   0.13056  -0.0860  0.0408  1.0000  -6.2532   0.0000   0.2679
  20.000   1.5301   0.13762   0.13255  -0.0869  0.0403  1.0000  -6.2690   0.0000   0.2683
  20.100   1.5282   0.13951   0.13451  -0.0878  0.0397  1.0000  -6.2845   0.0000   0.2687
  20.200   1.5264   0.14139   0.13645  -0.0887  0.0391  1.0000  -6.2989   0.0000   0.2690
  20.300   1.5245   0.14328   0.13841  -0.0896  0.0384  1.0000  -6.3124   0.0000   0.2694
  20.400   1.5221   0.14528   0.14047  -0.0905  0.0377  1.0000  -6.3215   0.0000   0.2699
  20.500   1.5196   0.14733   0.14257  -0.0916  0.0370  1.0000  -6.3287   0.0000   0.2704
  20.600   1.5173   0.14931   0.14461  -0.0926  0.0363  1.0000  -6.3372   0.0000   0.2709
  20.700   1.5151   0.15126   0.14660  -0.0936  0.0356  1.0000  -6.3465   0.0000   0.2714
  20.800   1.5131   0.15318   0.14857  -0.0946  0.0350  1.0000  -6.3561   0.0000   0.2719
  20.900   1.5111   0.15511   0.15054  -0.0956  0.0343  1.0000  -6.3658   0.0000   0.2723
  21.000   1.5086   0.15716   0.15263  -0.0967  0.0337  1.0000  -6.3712   0.0000   0.2729
  21.100   1.5059   0.15925   0.15476  -0.0978  0.0332  1.0000  -6.3750   0.0000   0.2735
  21.200   1.5034   0.16128   0.15684  -0.0989  0.0326  1.0000  -6.3799   0.0000   0.2741
  21.300   1.5009   0.16330   0.15890  -0.1001  0.0321  1.0000  -6.3843   0.0000   0.2747
  21.400   1.4984   0.16534   0.16097  -0.1012  0.0316  1.0000  -6.3873   0.0000   0.2753
  21.500   1.4959   0.16738   0.16304  -0.1024  0.0311  1.0000  -6.3885   0.0000   0.2760
  21.600   1.4929   0.16952   0.16521  -0.1036  0.0306  1.0000  -6.3846   0.0000   0.2767
  21.700   1.4898   0.17169   0.16741  -0.1048  0.0301  1.0000  -6.3774   0.0000   0.2774
  21.800   1.4869   0.17377   0.16953  -0.1060  0.0296  1.0000  -6.3696   0.0000   0.2780
  21.900   1.4841   0.17580   0.17160  -0.1071  0.0290  1.0000  -6.3587   0.0000   0.2787
  22.000   1.4809   0.17792   0.17377  -0.1083  0.0285  1.0000  -6.3395   0.0000   0.2794
  22.100   1.4760   0.18046   0.17638  -0.1097  0.0281  1.0000  -6.3041   0.0000   0.2804
  22.200   1.4697   0.18336   0.17936  -0.1115  0.0277  1.0000  -6.2562   0.0000   0.2816
  22.300   1.4622   0.18664   0.18274  -0.1135  0.0275  1.0000  -6.1973   0.0000   0.2832
  22.400   1.4542   0.19007   0.18625  -0.1156  0.0273  1.0000  -6.1326   0.0000   0.2849
  22.500   1.4459   0.19362   0.18989  -0.1179  0.0272  1.0000  -6.0623   0.0000   0.2867
  22.600   1.4371   0.19740   0.19377  -0.1203  0.0271  1.0000  -5.9854   0.0000   0.2887
  22.700   1.4277   0.20142   0.19787  -0.1229  0.0271  1.0000  -5.9021   0.0000   0.2910
  22.800   1.4182   0.20551   0.20203  -0.1255  0.0270  1.0000  -5.8131   0.0000   0.2933
  22.900   1.4083   0.20975   0.20636  -0.1284  0.0270  1.0000  -5.7161   0.0000   0.2958
  23.000   1.3979   0.21414   0.21082  -0.1313  0.0271  1.0000  -5.6097   0.0000   0.2985
  23.100   1.3871   0.21874   0.21548  -0.1344  0.0271  1.0000  -5.4903   0.0000   0.3014
  23.200   1.3748   0.22396   0.22077  -0.1379  0.0273  1.0000  -5.3467   0.0000   0.3049
  23.300   1.3604   0.22999   0.22686  -0.1418  0.0275  1.0000  -5.1632   0.0000   0.3089
  23.400   1.3333   0.24075   0.23769  -0.1484  0.0280  1.0000  -4.7684   0.0000   0.3165
  23.500   1.2870   0.26114   0.25803  -0.1587  0.0283  1.0000  -3.8564   0.0000   0.3301
  23.600   1.2829   0.26501   0.26188  -0.1606  0.0280  1.0000  -3.7328   0.0000   0.3319
  23.700   1.2795   0.26871   0.26557  -0.1624  0.0278  1.0000  -3.6170   0.0000   0.3336
  23.800   1.2766   0.27230   0.26915  -0.1641  0.0276  1.0000  -3.5054   0.0000   0.3352
  23.900   1.2743   0.27575   0.27259  -0.1658  0.0274  1.0000  -3.4013   0.0000   0.3366
  24.000   1.2728   0.27894   0.27578  -0.1672  0.0274  1.0000  -3.3093   0.0000   0.3378
  24.100   1.2721   0.28184   0.27867  -0.1685  0.0274  1.0000  -3.2319   0.0000   0.3388
  24.200   1.2722   0.28447   0.28129  -0.1697  0.0274  1.0000  -3.1681   0.0000   0.3396
  24.300   1.2727   0.28693   0.28376  -0.1709  0.0275  1.0000  -3.1119   0.0000   0.3402
  24.400   1.2732   0.28973   0.28655  -0.1721  0.0279  1.0000  -3.0383   0.0000   0.3410
  24.700   1.2644   0.31428   0.31098  -0.1776  0.0416  1.0000  -2.3062   0.0000   0.3469
  24.800   1.2660   0.31624   0.31294  -0.1785  0.0416  1.0000  -2.2899   0.0000   0.3472
  24.900   1.2677   0.31817   0.31488  -0.1794  0.0416  1.0000  -2.2743   0.0000   0.3474
  25.000   1.2693   0.32007   0.31678  -0.1802  0.0415  1.0000  -2.2594   0.0000   0.3477
  25.100   1.2709   0.32195   0.31866  -0.1811  0.0415  1.0000  -2.2450   0.0000   0.3480
  25.200   1.2725   0.32380   0.32052  -0.1820  0.0415  1.0000  -2.2313   0.0000   0.3482
  25.300   1.2742   0.32562   0.32234  -0.1829  0.0415  1.0000  -2.2181   0.0000   0.3485
  25.400   1.2758   0.32741   0.32414  -0.1838  0.0415  1.0000  -2.2053   0.0000   0.3488
  25.500   1.2774   0.32917   0.32597  -0.1846  0.0415  1.0000  -2.1930   0.0000   0.3490
  25.600   1.2790   0.33090   0.32771  -0.1855  0.0414  1.0000  -2.1968   0.0000   0.3493
  25.700   1.2806   0.33261   0.32941  -0.1864  0.0414  1.0000  -2.2009   0.0000   0.3495
  25.800   1.2822   0.33427   0.33109  -0.1873  0.0414  1.0000  -2.2051   0.0000   0.3497
  25.900   1.2838   0.33591   0.33273  -0.1882  0.0414  1.0000  -2.2094   0.0000   0.3500
  26.000   1.2854   0.33750   0.33432  -0.1891  0.0413  1.0000  -2.2136   0.0000   0.3502
  26.100   1.2869   0.33904   0.33587  -0.1899  0.0413  1.0000  -2.2178   0.0000   0.3505
  26.200   1.2885   0.34054   0.33737  -0.1908  0.0412  1.0000  -2.2220   0.0000   0.3507
  26.300   1.2900   0.34199   0.33882  -0.1917  0.0412  1.0000  -2.2262   0.0000   0.3510
  26.400   1.2915   0.34336   0.34020  -0.1926  0.0411  1.0000  -2.2300   0.0000   0.3512
  26.500   1.2929   0.34465   0.34150  -0.1936  0.0410  1.0000  -2.2335   0.0000   0.3515
  26.600   1.2943   0.34585   0.34270  -0.1945  0.0409  1.0000  -2.2360   0.0000   0.3518
  26.700   1.2949   0.34679   0.34364  -0.1957  0.0408  1.0000  -2.2287   0.0000   0.3524
  26.800   1.2949   0.34745   0.34430  -0.1970  0.0405  1.0000  -2.2122   0.0000   0.3532
  26.900   1.2942   0.34789   0.34473  -0.1986  0.0400  1.0000  -2.1831   0.0000   0.3543
  27.000   1.2939   0.34873   0.34556  -0.2003  0.0389  1.0000  -2.1488   0.0000   0.3554
  27.100   1.2949   0.35011   0.34694  -0.2015  0.0379  1.0000  -2.1380   0.0000   0.3560
  27.200   1.2963   0.35155   0.34839  -0.2025  0.0372  1.0000  -2.1383   0.0000   0.3563
  27.300   1.2979   0.35297   0.34982  -0.2034  0.0365  1.0000  -2.1432   0.0000   0.3565
  27.400   1.2995   0.35439   0.35124  -0.2043  0.0359  1.0000  -2.1507   0.0000   0.3567
  27.500   1.3012   0.35578   0.35264  -0.2051  0.0354  1.0000  -2.1597   0.0000   0.3568
  27.600   1.3029   0.35716   0.35402  -0.2059  0.0349  1.0000  -2.1699   0.0000   0.3569
  27.700   1.3046   0.35852   0.35539  -0.2067  0.0344  1.0000  -2.1810   0.0000   0.3570
  27.800   1.3063   0.35986   0.35674  -0.2075  0.0340  1.0000  -2.1928   0.0000   0.3571
  27.900   1.3081   0.36119   0.35808  -0.2083  0.0335  1.0000  -2.2053   0.0000   0.3572
  28.000   1.3098   0.36251   0.35940  -0.2091  0.0332  1.0000  -2.2185   0.0000   0.3572
  28.100   1.3116   0.36381   0.36071  -0.2098  0.0328  1.0000  -2.2321   0.0000   0.3573
  28.200   1.3133   0.36510   0.36201  -0.2106  0.0324  1.0000  -2.2464   0.0000   0.3573
  28.300   1.3151   0.36638   0.36330  -0.2113  0.0321  1.0000  -2.2612   0.0000   0.3573
  28.400   1.3169   0.36764   0.36457  -0.2120  0.0318  1.0000  -2.2768   0.0000   0.3573
  28.500   1.3188   0.36886   0.36579  -0.2128  0.0314  1.0000  -2.2943   0.0000   0.3573
  28.600   1.3206   0.37003   0.36698  -0.2134  0.0310  1.0000  -2.3143   0.0000   0.3573
  28.700   1.3226   0.37116   0.36811  -0.2141  0.0307  1.0000  -2.3373   0.0000   0.3572
  28.800   1.3246   0.37223   0.36919  -0.2147  0.0303  1.0000  -2.3636   0.0000   0.3570
  28.900   1.3267   0.37325   0.37023  -0.2153  0.0299  1.0000  -2.3937   0.0000   0.3568
  29.000   1.3289   0.37425   0.37125  -0.2158  0.0295  1.0000  -2.4276   0.0000   0.3565
  29.100   1.3313   0.37524   0.37225  -0.2162  0.0292  1.0000  -2.4655   0.0000   0.3562
  29.200   1.3337   0.37629   0.37331  -0.2166  0.0289  1.0000  -2.5132   0.0000   0.3558
  29.300   1.3362   0.37745   0.37449  -0.2171  0.0286  1.0000  -2.5602   0.0000   0.3554
  29.400   1.3387   0.37872   0.37577  -0.2175  0.0284  1.0000  -2.6058   0.0000   0.3550
  29.500   1.3414   0.38014   0.37721  -0.2178  0.0281  1.0000  -2.6549   0.0000   0.3546
  29.600   1.3444   0.38183   0.37892  -0.2180  0.0279  1.0000  -2.7086   0.0000   0.3540
  29.700   1.3479   0.38412   0.38122  -0.2181  0.0276  1.0000  -2.7687   0.0000   0.3532
  29.800   1.3471   0.39497   0.39204  -0.2191  0.0267  1.0000  -2.6868   0.0000   0.3539
  29.900   1.3484   0.39650   0.39358  -0.2199  0.0267  1.0000  -2.6901   0.0000   0.3541
  30.000   1.3497   0.39798   0.39506  -0.2208  0.0266  1.0000  -2.6921   0.0000   0.3543


